/*--------------------------------*- C++ -*----------------------------------*\
| =========                 |                                                 |
| \\      /  F ield         | OpenFOAM: The Open Source CFD Toolbox           |
|  \\    /   O peration     | Version:  v1912                                 |
|   \\  /    A nd           | Website:  www.openfoam.com                      |
|    \\/     M anipulation  |                                                 |
\*---------------------------------------------------------------------------*/
FoamFile
{
    version     2.0;
    format      ascii;
    class       dictionary;
    object      setExprFieldsDict;
}
// * * * * * * * * * * * * * * * * * * * * * * * * * * * * * * * * * * * * * //


expressions
(
    T
    {
        field       T;
        dimensions  [0 0 0 1 0 0 0];

        constants
        {
            centre (0 0 0);
        }

        variables
        (
            "radius = 1.0"
        );

        condition
        #{
            (
            true
            )
        #};

        expression
        #{
			  
			 299 + pos().x()

        #};
    }
);


// ************************************************************************* //